LAMMPS (3 Mar 2020)
##

############################################################
#####	 	    Argon in tank	   	   #########
############################################################
variable		temperature equal 85.0

units			real
atom_style		atomic
dimension 		3
boundary		p p p

read_data		atomdata
  orthogonal box = (0 0 0) to (816 27.2 217.6)
  reading atoms ...
  91083 atoms
#read_restart 		water.restart.mpiio

############################################################
#############INTERACTION PARAMETERS########################
group			film    type 1
36603 atoms in group film
group	   	 	wall    type 2
54480 atoms in group wall

mass           		1 	39.792  ## atomic mass of argon
mass                    2       195.084  ## atomic mass of platinum

neighbor        	2.0 bin
neigh_modify		every 1 delay 1 check yes

################# hybrid potential #######################
#pair_style 		hybrid/overlay lj/cut 18.7 sw

#pair_coeff              * * sw mW.sw mW NULL
#pair_coeff	    	2 2  lj/cut 15.999 2.47 7.0
#pair_coeff		1 2  lj/cut 0.9 2.8140 7.0
################### L-J potential #####################
pair_style             lj/cut  5.5

pair_coeff             1 1  1.648 3.4  7.0
pair_coeff             1 2  1.153 2.72  7.0
pair_coeff             2 2  15.999 2.47  7.0
######################################################

fix	    		f1 wall setforce 0.0 0.0 0.0
thermo			5
min_style 		fire
minimize    		1.0e-5 1.0e-7 200 10000
  update every 1 steps, delay 0 steps, check yes
  Parameters for fire:
    dmax delaystep dtgrow dtshrink alpha0 alphashrink tmax tmin    integrator halfstepback
     0.1        20    1.1      0.5   0.25        0.99   10 0.02 eulerimplicit          yes
Step Temp E_pair E_mol TotEng Press
0            0 3.2351415e+08            0 3.2351415e+08     21392216
Loop time of 16.6673 on 32 procs for 200 steps with 91083 atoms

Minimization stats:
  Stopping criterion = max iterations
  Energy initial, next-to-last, final =
  Force two-norm initial, final = 1.03512e+06 791.245
  Force max component initial, final = 15242.9 49.876
  Final line search alpha, max atom move = 0 0
  Iterations, force evaluations = 200 201

############################################################
#############EQUILIBRATION PARAMETERS######################
velocity 		film create 85 12345
compute 		myTemp film temp
fix			1 film nvt temp 85 85 100.0
fix_modify   		1 temp myTemp

fix	    		f2 wall setforce 0.0 0.0 0.0
velocity		wall set 0.0 0.0 0.0

###########################################################
############### Post parameters############################
thermo_style    	custom step temp pe etotal
thermo_modify	        temp myTemp
thermo			100
fix            		extra film print 2000 "$(step) $(temp) $(pe)" append iteration_info.dat 			screen no

timestep		5.0
reset_timestep 		0
restart     		100000 water.restart.mpiio
dump			1 all custom 200 thinfilmtank.dat id type x y z
run			80000
Step Temp PotEng TotEng
0           85 2.8613203e+08 2.861413e+08
Averages over the last 401 of 801 rows, steps 40000 to 80000:
Temp PotEng TotEng
84.9951 2.85803e+08 2.85813e+08
Loop time of 4298.36 on 32 procs for 80000 steps with 91083 atoms
