LAMMPS (3 Mar 2020)
# shear viscosity calculation

units		real
variable	T equal 86.4956
variable	V equal vol
variable	dt equal 4.0
variable	p equal 400     # correlation length
variable	s equal 50       # sample interval
variable	d equal $p*$s   # dump interval
variable	d equal 400*$s
variable	d equal 400*50

# convert from LAMMPS real units to SI

variable	kB equal 1.3806504e-23
variable	atm2Pa equal 101325.0
variable	A2m equal 1.0e-10
variable	fs2s equal 1.0e-15
variable	convert equal 101325*101325*1e-15*1e-10*1e-10*1e-10

# setup problem

dimension	3
boundary	p p p
lattice		fcc 5.376 orient x 1 0 0 orient y 0 1 0 orient z 0 0 1
Lattice spacing in x,y,z = 5.376 5.376 5.376
region		box block 0 10 0 10 0 10
create_box	1 box
Created orthogonal box = (0 0 0) to (53.76 53.76 53.76)
create_atoms	1 box
Created 4000 atoms
mass		1 39.948
pair_style	lj/cut 13.0
pair_coeff	* * 0.2381 3.405
timestep	4
thermo		$d
thermo		20000

#equilibration and thermalization

velocity	all create $T 102486 mom yes rot yes dist gaussian
velocity	all create 86.4956 102486 mom yes rot yes dist gaussian
fix		NVT all nvt temp $T $T 10 drag 0.2
fix		NVT all nvt temp 86.4956 $T 10 drag 0.2
fix		NVT all nvt temp 86.4956 86.4956 10 drag 0.2
run		8000
  update every 1 steps, delay 10 steps, check yes
Step Temp E_pair E_mol TotEng Press
0      86.4956   -7902.3794            0   -6871.3294    -1231.146
Loop time of 142.154 on 32 procs for 8000 steps with 4000 atoms

# viscosity calculation

reset_timestep 	0

compute 	stress all stress/atom NULL
compute		pressure all pressure thermo_temp

variable 	pxy equal pxy
variable	pxz equal pxz
variable	pyz equal pyz
variable	Pxx equal c_pressure[1]
variable	Pyy equal c_pressure[2]
variable	Pzz equal c_pressure[3]
variable	Pxy equal c_pressure[4]
variable	Pxz equal c_pressure[5]
variable	Pyz equal c_pressure[6]
variable	pressure_timestep equal step

variable	pxy equal pxy
variable	pxz equal pxz
variable	pyz equal pyz
fix		SS all ave/correlate $s $p $d v_pxy v_pxz v_pyz type auto file S0St.dat ave running
fix		SS all ave/correlate 50 $p $d v_pxy v_pxz v_pyz type auto file S0St.dat ave running
fix		SS all ave/correlate 50 400 $d v_pxy v_pxz v_pyz type auto file S0St.dat ave running
fix		SS all ave/correlate 50 400 20000 v_pxy v_pxz v_pyz type auto file S0St.dat ave running
variable	scale equal 1.0266755625e-35/(1.3806504e-23*86.4956)*155373.797376*50*4
variable	v11 equal trap(f_SS[3])*2.67154972450291e-07
variable	v22 equal trap(f_SS[4])*2.67154972450291e-07
variable	v33 equal trap(f_SS[5])*2.67154972450291e-07
thermo_style	custom step temp press v_pxy v_pxz v_pyz c_pressure[*]
#dump		dmp all custom 500 test_*.xyz id c_stress[*]
#dump		dmp all custom 500 test_*.xyz c_pressure[*]
run 		20000
Step Temp Press v_pxy v_pxz v_pyz c_pressure[1] c_pressure[2] c_pressure[3] c_pressure[4] c_pressure[5] c_pressure[6]
0     85.81548    1018.6814    13.149222    14.376269    4.3152391    1003.4921    1025.8704    1026.6818    13.149222    14.376269    4.3152391
Loop time of 425.857 on 32 procs for 20000 steps with 4000 atoms

variable	v equal (v_v11+v_v22+v_v33)/3.0
variable	ndens equal count(all)/vol
average viscosity: 0.000650935675476207 [Pa.s] @ 86.4956 K, 0.0257443666020476 /A^3
volume of the simulation box is 155373.797376
